data_image0
_chemical_formula_structural       OSrO2IrOSrO2IrOSrO2IrOSrO2IrOSrO2IrOSrO2IrOSrO2IrOSrO2IrOSrO2IrOSrO2IrOSrO2IrOSrO2IrOSrO2IrOSrO2IrOSrO2IrOSrO2Ir
_chemical_formula_sum              "O48 Sr16 Ir16"
_cell_length_a       7.97153
_cell_length_b       7.97153
_cell_length_c       29.2618
_cell_angle_alpha    90
_cell_angle_beta     90
_cell_angle_gamma    90

_space_group_name_H-M_alt    "P 1"
_space_group_IT_number       1

loop_
  _space_group_symop_operation_xyz
  'x, y, z'

loop_
  _atom_site_type_symbol
  _atom_site_label
  _atom_site_symmetry_multiplicity
  _atom_site_fract_x
  _atom_site_fract_y
  _atom_site_fract_z
  _atom_site_occupancy
  O   O1        1.0  0.00000  0.00000  0.25631  1.0000
  Sr  Sr1       1.0  0.25000  0.25000  0.25988  1.0000
  O   O2        1.0  0.25000  0.00000  0.31989  1.0000
  O   O3        1.0  0.00000  0.25000  0.31989  1.0000
  Ir  Ir1       1.0  0.00000  0.00000  0.32739  1.0000
  O   O4        1.0  0.00000  0.00000  0.39507  1.0000
  Sr  Sr2       1.0  0.25000  0.25000  0.39865  1.0000
  O   O5        1.0  0.25000  0.00000  0.45866  1.0000
  O   O6        1.0  0.00000  0.25000  0.45866  1.0000
  Ir  Ir2       1.0  0.00000  0.00000  0.46616  1.0000
  O   O7        1.0  0.00000  0.00000  0.53384  1.0000
  Sr  Sr3       1.0  0.25000  0.25000  0.53742  1.0000
  O   O8        1.0  0.25000  0.00000  0.59742  1.0000
  O   O9        1.0  0.00000  0.25000  0.59742  1.0000
  Ir  Ir3       1.0  0.00000  0.00000  0.60493  1.0000
  O   O10       1.0  0.00000  0.00000  0.67261  1.0000
  Sr  Sr4       1.0  0.25000  0.25000  0.67619  1.0000
  O   O11       1.0  0.25000  0.00000  0.73619  1.0000
  O   O12       1.0  0.00000  0.25000  0.73619  1.0000
  Ir  Ir4       1.0  0.00000  0.00000  0.74369  1.0000
  O   O13       1.0  0.00000  0.50000  0.25631  1.0000
  Sr  Sr5       1.0  0.25000  0.75000  0.25988  1.0000
  O   O14       1.0  0.25000  0.50000  0.31989  1.0000
  O   O15       1.0  0.00000  0.75000  0.31989  1.0000
  Ir  Ir5       1.0  0.00000  0.50000  0.32739  1.0000
  O   O16       1.0  0.00000  0.50000  0.39507  1.0000
  Sr  Sr6       1.0  0.25000  0.75000  0.39865  1.0000
  O   O17       1.0  0.25000  0.50000  0.45866  1.0000
  O   O18       1.0  0.00000  0.75000  0.45866  1.0000
  Ir  Ir6       1.0  0.00000  0.50000  0.46616  1.0000
  O   O19       1.0  0.00000  0.50000  0.53384  1.0000
  Sr  Sr7       1.0  0.25000  0.75000  0.53742  1.0000
  O   O20       1.0  0.25000  0.50000  0.59742  1.0000
  O   O21       1.0  0.00000  0.75000  0.59742  1.0000
  Ir  Ir7       1.0  0.00000  0.50000  0.60493  1.0000
  O   O22       1.0  0.00000  0.50000  0.67261  1.0000
  Sr  Sr8       1.0  0.25000  0.75000  0.67619  1.0000
  O   O23       1.0  0.25000  0.50000  0.73619  1.0000
  O   O24       1.0  0.00000  0.75000  0.73619  1.0000
  Ir  Ir8       1.0  0.00000  0.50000  0.74369  1.0000
  O   O25       1.0  0.50000  0.00000  0.25631  1.0000
  Sr  Sr9       1.0  0.75000  0.25000  0.25988  1.0000
  O   O26       1.0  0.75000  0.00000  0.31989  1.0000
  O   O27       1.0  0.50000  0.25000  0.31989  1.0000
  Ir  Ir9       1.0  0.50000  0.00000  0.32739  1.0000
  O   O28       1.0  0.50000  0.00000  0.39507  1.0000
  Sr  Sr10      1.0  0.75000  0.25000  0.39865  1.0000
  O   O29       1.0  0.75000  0.00000  0.45866  1.0000
  O   O30       1.0  0.50000  0.25000  0.45866  1.0000
  Ir  Ir10      1.0  0.50000  0.00000  0.46616  1.0000
  O   O31       1.0  0.50000  0.00000  0.53384  1.0000
  Sr  Sr11      1.0  0.75000  0.25000  0.53742  1.0000
  O   O32       1.0  0.75000  0.00000  0.59742  1.0000
  O   O33       1.0  0.50000  0.25000  0.59742  1.0000
  Ir  Ir11      1.0  0.50000  0.00000  0.60493  1.0000
  O   O34       1.0  0.50000  0.00000  0.67261  1.0000
  Sr  Sr12      1.0  0.75000  0.25000  0.67619  1.0000
  O   O35       1.0  0.75000  0.00000  0.73619  1.0000
  O   O36       1.0  0.50000  0.25000  0.73619  1.0000
  Ir  Ir12      1.0  0.50000  0.00000  0.74369  1.0000
  O   O37       1.0  0.50000  0.50000  0.25631  1.0000
  Sr  Sr13      1.0  0.75000  0.75000  0.25988  1.0000
  O   O38       1.0  0.75000  0.50000  0.31989  1.0000
  O   O39       1.0  0.50000  0.75000  0.31989  1.0000
  Ir  Ir13      1.0  0.50000  0.50000  0.32739  1.0000
  O   O40       1.0  0.50000  0.50000  0.39507  1.0000
  Sr  Sr14      1.0  0.75000  0.75000  0.39865  1.0000
  O   O41       1.0  0.75000  0.50000  0.45866  1.0000
  O   O42       1.0  0.50000  0.75000  0.45866  1.0000
  Ir  Ir14      1.0  0.50000  0.50000  0.46616  1.0000
  O   O43       1.0  0.50000  0.50000  0.53384  1.0000
  Sr  Sr15      1.0  0.75000  0.75000  0.53742  1.0000
  O   O44       1.0  0.75000  0.50000  0.59742  1.0000
  O   O45       1.0  0.50000  0.75000  0.59742  1.0000
  Ir  Ir15      1.0  0.50000  0.50000  0.60493  1.0000
  O   O46       1.0  0.50000  0.50000  0.67261  1.0000
  Sr  Sr16      1.0  0.75000  0.75000  0.67619  1.0000
  O   O47       1.0  0.75000  0.50000  0.73619  1.0000
  O   O48       1.0  0.50000  0.75000  0.73619  1.0000
  Ir  Ir16      1.0  0.50000  0.50000  0.74369  1.0000
